%chk=CDCl2rad.chk
# B3LYP/6-31G* geom=connectivity opt freq

Title Card Required

0 2
 C                 -0.06845081    2.71727926    0.09710370
 H(iso=2)                 -1.13845081    2.71729244    0.09710370
 Cl                 0.51822601    3.54694357    1.53413795
 Cl                 0.51819572    1.05792823    0.09710370

 1 2 1.0 3 1.0 4 1.0
 2
 3
 4

