%chk=CH2Cl2.chk
# B3LYP/6-31G* geom=connectivity opt freq

Title Card Required

0 1
 C                  0.79445667   -0.74674553    0.00000000
 H                  1.15112951   -0.24234734   -0.87365150
 H(iso=2)                 -0.27554333   -0.74673234    0.00000000
 Cl                 1.38110320   -2.40609656    0.00000000
 Cl                 1.38113349    0.08291879    1.43703425

 1 2 1.0 3 1.0 4 1.0 5 1.0
 2
 3
 4
 5

