%chk=CHCl2rad.chk
# B3LYP/6-31G* geom=connectivity opt freq

Title Card Required

0 2
 C                 -0.46776554    1.83103221    0.00000000
 H                 -0.11109270    2.33543040   -0.87365150
 Cl                 0.11891129    2.66069653    1.43703425
 Cl                 0.11888100    0.17168118    0.00000000

 1 2 1.0 3 1.0 4 1.0
 2
 3
 4

