%chk=TSCDCL.chk
# b3lyp/6-31g* geom=connectivity opt=(ts,calcfc) freq

Title Card Required

0 2
 C                  0.26092080    2.00396227   -0.18310477
 H(iso=2)                  0.53661697    0.71549456    0.15370760
 H                  0.74051586    2.24080223   -1.10981693
 Cl                 0.85520162    3.07969123    1.07675138
 Cl                -1.47900985    2.20609288   -0.35452400
 Cl                 0.84069362   -0.70560954    0.52519183

 1 2 1.0 3 1.0 4 1.0 5 1.0
 2
 3
 4
 5
 6

